*Heading
** Job name: Job-7 Model name: Model-10
** Generated by: Abaqus/CAE 6.14-1
*Preprint, echo=NO, model=NO, history=NO, contact=NO
** ----------------------------------------------------------------
** 
** PART INSTANCE: RC-1
** 
*Node
      1,  -798.448914,  -52.7038651,     145.7034
      2,  -856.713623,  -60.8953171,     145.7034
      3,  -857.482971,  -61.4509964,     145.7034
      4,  -856.726501,   -63.311039,     145.7034
      5,  -798.448914,  -63.4360313,     145.7034
      6,  -857.673584,   -61.847477,     145.7034
      7,   -735.58197,  -43.4766197,     145.7034
      8,  -559.181213,  -44.8606071,     145.7034
      9,  -817.860291,  -55.5068779,     145.7034
     10,  -837.278992,  -58.2586136,     145.7034
     11,   -837.30072,  -63.3780785,     145.7034
     12,  -817.874817,  -63.4234734,     145.7034
     13,  -777.489441,  -49.6543427,     145.7034
     14,  -756.533997,  -46.5772018,     145.7034
     15,  -709.661621,  -39.8270531,     145.7034
     16,  -683.697388,  -36.5044708,     145.7034
     17,  -657.676331,  -33.6641502,     145.7034
     18,  -631.587524,  -31.5432568,     145.7034
     19,  -605.431946,  -30.6078377,     145.7034
     20,   -579.32312,   -32.124939,     145.7034
** ... 4738 like lines cut
*Element, type=C3D4
   1,  467,  412, 1055,  893
   2,  467,  631,  412,  893
   3,  467,  897,  631,  893
   4, 1102,  864,  702, 1123
   5, 1082,  158, 1198, 1137
   6, 1082, 1137,  369,  158
   7, 1082,  518,  369,  671
   8, 1082, 1198,  671, 1137
   9, 1082, 1137,  671,  369
  10, 1082,  369,  526,  158
  11, 1082,  113,  342,  158
  12, 1082,  342, 1198,  158
  13, 1180,  670,  108,  379
  14, 1180,   54,  670,  379
  15, 1180,  239,  670,   54
  16,  268, 1248, 1073, 1263
  17,  268, 1248, 1263, 1320
  18,  268, 1016,  274,  684
  19,  268,   83, 1016,  684
  20,  268, 1263,   83,  684
** ... 15246 like lines cut
*Nset, nset=RC-1_Set-All-Material, generate
    1,  4758,     1
*Elset, elset=RC-1_Set-All-Material, generate
     1,  15266,      1
** Section: Section-Steel
*Solid Section, elset=RC-1_Set-All-Material, material=Material-1
,
*System
*Nset, nset=Set-2
   48,   49,   76,   77,   99,  100,  102,  105,  111,  116,  134,  137,  146,  148,  149,  152
  153,  155,  156,  177,  179,  180,  181,  182,  194,  203,  205,  210,  214,  216,  217,  222
  223,  226,  227,  236,  262,  270,  271,  272,  282,  284,  302,  327,  330,  331,  338,  348
  349,  361,  364,  370,  396,  398,  400,  401,  404,  406,  417,  418,  424,  426,  427,  437
  438,  462,  465,  470,  475,  490,  497,  502,  503,  504,  505,  506,  511,  513,  516,  522
  530,  540,  550,  553,  554,  560,  574,  578,  581,  586,  591,  593,  594,  598,  603,  606
  614,  624,  646,  647,  655,  659,  898,  899,  900,  901,  902,  903,  904,  905,  906,  907
  908,  909,  910,  911,  912,  913,  914,  915,  916,  917,  918,  919,  920,  921,  922,  923
  924,  925,  926,  927,  928,  929,  930,  931,  932,  933,  934,  935,  936,  937,  938,  939
  940,  941, 1063, 1072, 1075, 1076, 1080, 1095, 1104, 1108, 1118, 1128, 1138, 1142, 1144, 1150
 1160, 1161, 1169, 1175, 1183, 1194, 1216, 1222, 1247, 1255, 1260, 1264, 1265, 1281, 1292, 1310
 1312, 1313
*Elset, elset=Set-2
   42,   43,   44,   45,   83,   84,   85,   86,   87,   89,   90,   99,  102,  105,  117,  119
  120,  134,  135,  136,  137,  143,  144,  154,  158,  159,  163,  166,  168,  197,  210,  214
  215,  216,  217,  321,  322,  325,  327,  399,  400,  437,  438,  440,  441,  442,  447,  508
  509,  547,  548,  587,  588,  648,  649,  792,  836,  838,  884,  907,  918,  919,  923,  926
  927,  943,  944,  945,  976,  980,  982,  983, 1018, 1019, 1047, 1050, 1053, 1059, 1070, 1088
 1099, 1109, 1110, 1127, 1148, 1151, 1152, 1154, 1155, 1159, 1202, 1205, 1213, 1239, 1245, 1248
 1250, 1251, 1261, 1283, 1285, 1289, 1298, 1313, 1314, 1316, 1317, 1336, 1338, 1339, 1340, 1341
 1342, 1376, 1377, 1385, 1387, 1388, 1389, 1412, 1413, 1444, 1446, 1479, 1484, 1517, 1518, 1570
 1603, 1604, 1605, 1677, 1679, 1681, 1682, 1683, 1779, 1780, 1781, 1825, 1826, 1841, 1876, 1900
 1918, 1919, 1920, 1964, 1969, 1970, 2006, 2028, 2173, 2175, 2278, 2280, 2284, 2286, 2287, 2293
 2294, 2305, 2308, 2309, 2320, 3063, 3064, 3075, 3083, 3086, 3092, 3096, 3099, 3106, 3117, 3119
 3131, 3134, 3211, 3226, 3232, 3248, 3255, 3257, 3273, 3290, 3292, 3294, 3295, 3300, 3302, 3304
 3305, 3308, 3312, 3313, 3316, 3352, 3414, 3419, 3420, 3422, 3479, 3481, 3485, 3486, 3487, 3489
 3497, 3498, 3509, 3515, 3518, 3519, 3668, 3677, 3691, 3692, 3694, 3705, 3736, 3745, 3749, 3799
 3809, 3820, 3828, 3846, 3856, 3878, 3884, 3964, 3965, 4056, 4074, 4079, 4269, 4272, 4432, 4622
 4627, 4632, 4721, 4812, 4816, 4842, 4875, 4876, 4877
*Nset, nset=Set-Symmetry
   52,   55,   59,   61,   76,   77,   82,   85,   92,  125,  136,  150,  154,  164,  165,  168
  174,  177,  179,  180,  181,  211,  218,  232,  234,  238,  241,  244,  246,  254,  256,  276
  278,  281,  282,  284,  285,  289,  290,  297,  299,  301,  307,  310,  320,  325,  328,  332
  347,  350,  353,  356,  366,  368,  373,  383,  396,  404,  414,  415,  417,  424,  430,  438
  445,  449,  450,  453,  456,  457,  458,  460,  462,  465,  471,  476,  484,  485,  486,  487
  495,  496,  508,  512,  524,  531,  534,  535,  550,  551,  555,  556,  562,  572,  574,  580
  585,  601,  614,  616,  623,  626,  629,  630,  632,  637,  638,  641,  642,  647,  649,  651
  659,  662,  782,  783,  784,  785,  786,  787,  788,  789,  790,  791,  792,  793,  794,  795
  796,  797,  798,  799,  800,  801,  802,  803,  804,  805,  806,  807,  808,  809,  810,  811
  812,  813,  814,  815,  816,  817,  818,  819,  820,  821,  822,  823,  824,  825,  826,  827
  828,  829,  830,  831,  832,  833,  834,  835,  836,  837,  838,  839,  840,  841,  842,  843
  844,  845,  846,  847,  848,  849,  850,  851,  852,  853,  854,  855,  856,  857,  858,  859
  860,  861,  862,  863,  864,  865,  866,  867,  868,  869,  870,  871,  872,  873,  874,  875
  876,  877,  878,  879,  880,  881,  882,  883,  884,  885,  886,  887,  888,  889,  890, 1058
 1064, 1065, 1068, 1071, 1080, 1081, 1106, 1113, 1121, 1122, 1169, 1176, 1200, 1202, 1204, 1207
 1208, 1215, 1219, 1229, 1233, 1236, 1240, 1246, 1253, 1261, 1262, 1273, 1282, 1298, 1306, 1307
 1308, 1314, 1528, 1550, 1553, 1559, 1563, 1566, 1569, 1570, 1573, 1589, 1592, 1595, 1598, 1600
 1615, 1617, 1621, 1622, 1623, 1632, 1641, 1642, 1644, 1645, 1646, 1651, 1652, 1661, 1665, 1671
 1674, 1680, 1681, 1682, 1690, 1704, 1709, 1712, 1713, 1725, 1727, 1729, 1731, 1732, 1742, 1746
 1751, 1753, 1759, 1760, 1768, 1770, 1772, 1774, 1778, 1787, 1793, 1806, 1808, 1813, 1818, 1822
** ... 29 like lines cut
*Elset, elset=Set-Symmetry
   255,   259,   260,   262,   263,   264,   290,   293,   295,   296,   305,   310,   315,   374,   378,   381
   384,   387,   392,   395,   398,   417,   422,   423,   428,   430,   432,   436,   463,   464,   485,   486
   487,   533,   536,   557,   567,   573,   574,   599,   605,   619,   622,   659,   663,   667,   683,   685
   686,   687,   691,   692,   695,   698,   707,   709,   711,   717,   752,   754,   767,   768,   769,   773
   782,   783,   785,   810,   812,   814,   817,   820,   865,   872,   907,   909,   912,   915,   917,   928
   950,   952,   955,   957,   972,   976,   978,   979,   986,   990,  1005,  1006,  1008,  1011,  1013,  1017
  1018,  1019,  1021,  1024,  1037,  1039,  1040,  1041,  1046,  1053,  1057,  1058,  1070,  1084,  1085,  1099
  1100,  1103,  1107,  1108,  1110,  1118,  1119,  1127,  1132,  1141,  1146,  1150,  1151,  1171,  1172,  1184
  1204,  1205,  1213,  1214,  1243,  1244,  1245,  1269,  1284,  1285,  1301,  1303,  1307,  1314,  1327,  1331
  1336,  1359,  1360,  1376,  1385,  1386,  1412,  1414,  1416,  1419,  1430,  1431,  1434,  1436,  1439,  1442
  1474,  1475,  1476,  1500,  1502,  1503,  1505,  1509,  1511,  1513,  1528,  1530,  1531,  1534,  1535,  1539
  1540,  1541,  1559,  1560,  1579,  1582,  1584,  1618,  1619,  1622,  1626,  1637,  1655,  1658,  1661,  1663
  1672,  1673,  1684,  1686,  1693,  1694,  1697,  1701,  1708,  1712,  1715,  1717,  1718,  1730,  1731,  1745
  1751,  1752,  1756,  1757,  1762,  1765,  1773,  1775,  1776,  1777,  1784,  1787,  1789,  1790,  1801,  1803
  1804,  1805,  1820,  1821,  1823,  1824,  1852,  1885,  1887,  1894,  1896,  1906,  1916,  1917,  1932,  1936
  1937,  1945,  1949,  1952,  1960,  1963,  1966,  1982,  1995,  1996,  2004,  2011,  2163,  2167,  2170,  2171
  2188,  2189,  2193,  2210,  2226,  2227,  2249,  2257,  2259,  2261,  2264,  2268,  2283,  2289,  2297,  2301
  2304,  2324,  2326,  2327,  2328,  2330,  2331,  2334,  2339,  2341,  2342,  2346,  2350,  2354,  2359,  2363
  2369,  2370,  2373,  2378,  2380,  2383,  2385,  2392,  2393,  2400,  2403,  2404,  2407,  2413,  2414,  2417
  2418,  2420,  2425,  2427,  2432,  2434,  2445,  2446,  2451,  2454,  2457,  2473,  2475,  2478,  2480,  2484
** ... 60 like lines cut
*Elset, elset=_Surf-pressure_S1
    16,    18,    48,    49,    52,    56,    75,   183,   200,   230,   234,   235,   266,   352,   358,   471
   642,   645,   720,   727,   729,   730,   939,   940,   997,  1031,  1032,  1067,  1160,  1173,  1176,  1179
  1211,  1223,  1262,  1264,  1297,  1309,  1323,  1325,  1351,  1395,  1397,  1400,  1526,  1550,  1554,  1555
  1556,  1610,  1642,  1720,  1729,  1828,  1890,  1891,  1940,  1943,  1950,  1975,  2020,  3040,  3046,  3048
  3053,  3070,  3412,  4773, 12820, 12872, 12877, 12878, 12902, 12904, 12917, 12919, 12951, 12954, 13011, 13015
 13016, 13031, 13036, 13038, 13060, 13065, 13079, 13089, 13092, 13106, 13137, 13183, 13190, 13191, 13192, 13193
 13194, 13195, 13207, 13220, 13222, 13236, 13240, 13241, 13245, 13267, 13287, 13290, 13302, 13304, 13323, 13369
 13371, 13382, 13383, 13405, 13406, 13410, 13428, 13430, 13461, 13462, 13485, 13487, 13493, 13525, 13526, 13530
 13546, 13547, 13556, 13558, 13559, 13573, 13588, 13590, 13594, 13600, 13601, 13602, 13634, 13640, 13672, 13675
 13680, 13681, 13684, 13686, 13697, 13703, 13704, 13714, 13715, 13727, 13729, 13731, 13735, 13747, 13749, 13755
 13781, 13797, 13799, 13800, 13802, 13808, 13823, 13824, 13828, 13862, 13863, 13866, 13871, 13873, 13881, 13883
 13893, 13902, 13905, 13913, 13914, 13924, 13938, 13941, 13952, 13953, 13954, 13955, 13958, 13974, 13976, 13988
 13990, 13999, 14001, 14016, 14017, 14020, 14029, 14040, 14042, 14074, 14075, 14081, 14096, 14102, 14104, 14105
 14107, 14112, 14116, 14117, 14118, 14145, 14146, 14157, 14160, 14161, 14169, 14174, 14175, 14177, 14181, 14197
 14202, 14205, 14221, 14230, 14267, 14283, 14284, 14285, 14295, 14300, 14457, 14495, 14507, 14526, 14540, 14566
 15040, 15059, 15060, 15064, 15066, 15089, 15096, 15100, 15102, 15104, 15106, 15109, 15135, 15138, 15140, 15157
 15159, 15161, 15162, 15168, 15194, 15196, 15198, 15199, 15202, 15204, 15265
*Elset, elset=_Surf-pressure_S2
    17,    57,    97,   174,   199,   229,   328,   467,   585,   640,   647,   788,   790,  1066,  1113,  1126
  1133,  1210,  1324,  1354,  1381,  1422,  1451,  1525,  1549,  1576,  1609,  1614,  1615,  1645,  1687,  1689
  1690,  1760,  1806,  1827,  1972,  1986,  3055,  3095,  3235, 12846, 12900, 12913, 12920, 12957, 12996, 13029
 13078, 13081, 13091, 13093, 13107, 13109, 13143, 13147, 13148, 13186, 13223, 13227, 13243, 13301, 13316, 13320
 13321, 13325, 13327, 13330, 13332, 13368, 13403, 13404, 13407, 13411, 13422, 13474, 13478, 13490, 13527, 13538
 13548, 13610, 13612, 13674, 13701, 13710, 13728, 13730, 13757, 13774, 13779, 13801, 13809, 13832, 13864, 13874
 13882, 13891, 13894, 13896, 13899, 13906, 13910, 13911, 13948, 13985, 13986, 14000, 14027, 14046, 14047, 14049
 14059, 14070, 14083, 14108, 14114, 14115, 14130, 14132, 14136, 14156, 14176, 14190, 14196, 14219, 14268, 14292
 14298, 14301, 14443, 14446, 14455, 14480, 14483, 14490, 14514, 14522, 14541, 14551, 14570, 14691, 15036, 15058
 15093, 15097, 15098, 15101, 15108, 15158, 15163, 15164, 15165, 15185, 15188, 15190, 15193, 15200, 15210, 15236
 15239, 15250, 15258
*Elset, elset=_Surf-pressure_S4
    21,    54,    93,    94,   179,   181,   184,   231,   233,   239,   242,   269,   331,   332,   353,   356
   465,   468,   586,   643,   646,   721,   731,   882,  1030,  1069,  1111,  1123,  1124,  1177,  1185,  1256
  1295,  1356,  1357,  1423,  1452,  1456,  1491,  1577,  1721,  1853,  1907,  1953,  1958,  2037,  3111,  3263
  3413, 12873, 12898, 12901, 12914, 12916, 12938, 12961, 12999, 13000, 13010, 13032, 13033, 13037, 13061, 13066
 13083, 13086, 13110, 13111, 13112, 13139, 13142, 13182, 13198, 13204, 13219, 13225, 13268, 13289, 13299, 13300
 13317, 13319, 13367, 13379, 13380, 13384, 13408, 13412, 13427, 13431, 13467, 13476, 13479, 13539, 13574, 13575
 13595, 13599, 13611, 13641, 13642, 13699, 13700, 13705, 13711, 13751, 13759, 13764, 13765, 13773, 13777, 13782
 13787, 13798, 13804, 13810, 13819, 13820, 13834, 13835, 13836, 13892, 13897, 13904, 13922, 13928, 13949, 13950
 13956, 13959, 13989, 14015, 14019, 14041, 14045, 14073, 14077, 14109, 14131, 14134, 14135, 14163, 14184, 14191
 14227, 14246, 14276, 14467, 14497, 14520, 14536, 14549, 14571, 14579, 15051, 15052, 15067, 15095, 15096, 15099
 15103, 15136, 15139, 15142, 15143, 15145, 15148, 15150, 15152, 15156, 15167, 15184, 15189, 15197, 15209, 15223
 15224, 15227, 15231, 15237, 15259
*Elset, elset=_Surf-pressure_S3
   285,   298,   363,   370,   565,   614,   677,   678,   854,   858,   902,   906,  1343,  1586,  1591,  1627
  1629,  1635,  1666,  1669,  1702,  1740,  1741,  1808,  1811,  1837,  1869,  1988,  1990,  2022,  2038,  2080
  2081,  2085,  2087,  2100,  2109,  2110,  2111,  2141,  2143,  2144,  2180,  2182,  2222,  2224,  2673,  2689
  2703,  2706,  2708,  2710,  2718,  2758,  2760,  2925,  2929,  2939,  2940,  2944,  2947,  2950,  2961,  2962
  2966,  2993,  2996,  3007,  3009,  3013,  3037,  3038,  3042,  3043,  3049,  3085,  3135,  3164,  3167,  3182
  3204,  3205,  3237,  3329,  3372,  3504,  3527,  3531,  3607,  3608,  3615,  3616,  3651,  3654,  3695,  3699
  3707,  3710,  3716,  3733,  3762,  3769,  3770,  3821,  3826,  3874,  3917,  3922,  3948,  3953,  3955,  4089
  4096,  4097,  4100,  4110,  4363,  4376,  4378,  4380,  4382,  4387,  4391,  4393,  4409,  4416,  4451,  4594
  4599,  4602,  4635,  4658,  4673,  4677,  4678,  4717,  4733,  4798,  4800,  4917,  4934,  4940,  4942, 12832
 12833, 12834, 12854, 12856, 12866, 12867, 12884, 12885, 12889, 12893, 12909, 12910, 12926, 12930, 12942, 12949
 12965, 12967, 12974, 12977, 12983, 12987, 12990, 12991, 12994, 13004, 13007, 13023, 13026, 13042, 13045, 13047
 13055, 13057, 13068, 13071, 13073, 13097, 13101, 13103, 13117, 13123, 13124, 13132, 13135, 13149, 13151, 13157
 13158, 13160, 13162, 13168, 13171, 13173, 13176, 13201, 13203, 13215, 13232, 13234, 13247, 13248, 13254, 13256
 13263, 13264, 13269, 13273, 13275, 13276, 13280, 13283, 13292, 13294, 13305, 13310, 13334, 13337, 13340, 13349
 13351, 13358, 13362, 13363, 13372, 13376, 13377, 13378, 13394, 13398, 13399, 13417, 13418, 13432, 13436, 13439
 13447, 13449, 13468, 13470, 13498, 13499, 13504, 13507, 13509, 13510, 13511, 13516, 13518, 13519, 13535, 13536
 13537, 13540, 13553, 13554, 13566, 13570, 13576, 13577, 13583, 13585, 13617, 13618, 13621, 13623, 13631, 13643
 13645, 13650, 13652, 13659, 13660, 13666, 13668, 13669, 13689, 13693, 13695, 13721, 13726, 13738, 13739, 13744
 13814, 13815, 13826, 13840, 13841, 13844, 13846, 13884, 13887, 13916, 13917, 13919, 13943, 13944, 13964, 13981
 14002, 14004, 14024, 14031, 14037, 14056, 14057, 14062, 14063, 14067, 14079, 14087, 14088, 14090, 14099, 14100
** ... 14 like lines cut
*Surface, type=ELEMENT, name=Surf-pressure
_Surf-pressure_S1, S1
_Surf-pressure_S2, S2
_Surf-pressure_S4, S4
_Surf-pressure_S3, S3
** 
** MATERIALS
** 
*Material, name=Material-1
*Density
 7.89e-09,
*Elastic
 2.1e+08, 0.3
** ----------------------------------------------------------------
** 
** STEP: Step-1
** 
*Step, name=Step-1, nlgeom=YES, inc=1000
*Static, stabilize=0.0002, allsdtol=0.05, continue=NO
0.01, 1., 1e-05, 0.01
** 
** BOUNDARY CONDITIONS
** 
** Name: BC-1 Type: Symmetry/Antisymmetry/Encastre
*Boundary
Set-Symmetry, ZSYMM
** Name: BC-2 Type: Symmetry/Antisymmetry/Encastre
*Boundary
Set-2, ENCASTRE
** 
** LOADS
** 
** Name: Load-Gravity   Type: Gravity
*Dload
, GRAV, 9810., 0., -1., 0.
** Name: Load-Pressure   Type: Pressure
*Dsload
Surf-pressure, P, 0.5
** 
** OUTPUT REQUESTS
** 
*Restart, write, frequency=0
** 
** FIELD OUTPUT: F-Output-1
** 
*Output, field, variable=PRESELECT
** 
** HISTORY OUTPUT: H-Output-1
** 
*Output, history, variable=PRESELECT
*End Step
